
#######################################################################
#
#                 Cambridge Crystallographic Data Centre
#                                CCDC 
#
#######################################################################
#
# If this CIF has been generated from an entry in the Cambridge 
# Structural Database, then it will include bibliographic, chemical, 
# crystal, experimental, refinement or atomic coordinate data resulting 
# from the CCDC's data processing and validation procedures.
#
#######################################################################

data_ABABEM
_symmetry_cell_setting           triclinic
_symmetry_space_group_name_H-M   'P -1'
_symmetry_Int_Tables_number      2
_space_group_name_Hall           '-P 1'
loop_
_symmetry_equiv_pos_site_id
_symmetry_equiv_pos_as_xyz
1 x,y,z
2 -x,-y,-z
_cell_length_a                   7.8400(16)
_cell_length_b                   10.464(2)
_cell_length_c                   10.514(2)
_cell_angle_alpha                63.84(3)
_cell_angle_beta                 79.62(3)
_cell_angle_gamma                89.42(3)
_cell_volume                     759.171
loop_
_atom_site_label
_atom_site_type_symbol
_atom_site_fract_x
_atom_site_fract_y
_atom_site_fract_z
_atom_site_U_iso_or_equiv
_atom_site_thermal_displace_type
S1 S -0.09731(11) 0.82576(8) 0.04086(8) 0.0599 Uani
O1 O -0.3185(3) 0.5944(3) 0.1791(3) 0.0736 Uani
O2 O 0.2479(3) 0.8734(2) -0.0219(2) 0.0632 Uani
N1 N -0.0292(2) 0.5625(2) 0.1507(2) 0.0416 Uani
N2 N 0.1318(3) 0.6432(2) 0.1083(2) 0.0411 Uani
C1 C 0.2837(3) 0.5721(3) 0.0768(3) 0.0464 Uani
H1 H 0.3892 0.6300 0.0591 0.0560 Uiso
H2 H 0.2803 0.5604 -0.0092 0.0560 Uiso
C2 C 0.2842(4) 0.4278(3) 0.2034(3) 0.0547 Uani
H3 H 0.3027 0.4404 0.2860 0.0660 Uiso
H4 H 0.3789 0.3771 0.1791 0.0660 Uiso
C3 C 0.1134(4) 0.3408(3) 0.2418(3) 0.0528 Uani
H5 H 0.1002 0.3205 0.1623 0.0630 Uiso
H6 H 0.1137 0.2505 0.3261 0.0630 Uiso
C4 C -0.0370(4) 0.4199(3) 0.2726(3) 0.0491 Uani
H7 H -0.1456 0.3669 0.2878 0.0590 Uiso
H8 H -0.0326 0.4290 0.3599 0.0590 Uiso
C5 C -0.1691(3) 0.6421(3) 0.1356(3) 0.0497 Uani
C6 C 0.1243(4) 0.7859(3) 0.0365(3) 0.0462 Uani
S2 S 0.16047(9) 0.00770(8) 0.62686(8) 0.0518 Uani
O3 O 0.3930(3) -0.1856(2) 0.6988(2) 0.0625 Uani
O4 O 0.1494(2) 0.2796(2) 0.5788(2) 0.0585 Uani
N3 N 0.4698(2) 0.0396(2) 0.6615(2) 0.0395 Uani
N4 N 0.3934(3) 0.1675(2) 0.6431(2) 0.0378 Uani
C7 C 0.5149(3) 0.2948(3) 0.5815(3) 0.0462 Uani
H9 H 0.4534 0.3749 0.5837 0.0550 Uiso
H10 H 0.5648 0.3187 0.4817 0.0550 Uiso
C8 C 0.6568(4) 0.2672(3) 0.6669(3) 0.0567 Uani
H11 H 0.6083 0.2567 0.7629 0.0680 Uiso
H12 H 0.7430 0.3483 0.6203 0.0680 Uiso
C9 C 0.7431(3) 0.1341(3) 0.6786(3) 0.0541 Uani
H13 H 0.8298 0.1158 0.7384 0.0650 Uiso
H14 H 0.8015 0.1481 0.5833 0.0650 Uiso
C10 C 0.6102(3) 0.0070(3) 0.7438(3) 0.0502 Uani
H15 H 0.6655 -0.0756 0.7418 0.0600 Uiso
H16 H 0.5628 -0.0153 0.8437 0.0600 Uiso
C11 C 0.3614(3) -0.0634(3) 0.6686(3) 0.0433 Uani
C12 C 0.2314(3) 0.1752(3) 0.6121(3) 0.0413 Uani
loop_
_atom_site_aniso_label
_atom_site_aniso_U_11
_atom_site_aniso_U_22
_atom_site_aniso_U_33
_atom_site_aniso_U_23
_atom_site_aniso_U_13
_atom_site_aniso_U_12
S1 0.0698(5) 0.0513(5) 0.0626(5) -0.0268(4) -0.0203(4) 0.0262(4)
O1 0.0382(12) 0.0922(17) 0.0976(17) -0.0508(14) -0.0077(11) 0.0078(11)
O2 0.0749(14) 0.0403(11) 0.0593(13) -0.0138(10) 0.0012(11) -0.0102(10)
N1 0.0357(11) 0.0393(11) 0.0448(12) -0.0153(10) -0.0052(9) 0.0011(9)
N2 0.0369(11) 0.0349(11) 0.0453(12) -0.0139(9) -0.0038(9) 0.0006(9)
C1 0.0375(14) 0.0472(15) 0.0502(15) -0.0213(13) 0.0008(11) 0.0045(11)
C2 0.0508(17) 0.0486(16) 0.0617(18) -0.0209(14) -0.0147(14) 0.0155(13)
C3 0.073(2) 0.0344(14) 0.0467(15) -0.0130(12) -0.0151(14) 0.0053(13)
C4 0.0545(16) 0.0431(15) 0.0406(14) -0.0120(12) -0.0044(12) -0.0101(12)
C5 0.0418(16) 0.0638(18) 0.0531(16) -0.0343(15) -0.0109(13) 0.0122(13)
C6 0.0585(17) 0.0418(15) 0.0362(13) -0.0172(12) -0.0048(12) 0.0039(13)
S2 0.0443(4) 0.0511(4) 0.0589(5) -0.0208(3) -0.0175(3) -0.0031(3)
O3 0.0769(15) 0.0407(11) 0.0712(14) -0.0247(10) -0.0188(11) 0.0081(10)
O4 0.0494(11) 0.0536(12) 0.0682(13) -0.0200(10) -0.0212(10) 0.0176(10)
N3 0.0358(11) 0.0354(11) 0.0451(12) -0.0159(9) -0.0080(9) 0.0058(9)
N4 0.0328(10) 0.0335(11) 0.0445(12) -0.0150(9) -0.0076(9) 0.0028(8)
C7 0.0446(15) 0.0356(13) 0.0543(16) -0.0195(12) -0.0011(12) -0.0040(11)
C8 0.0418(15) 0.0667(19) 0.0708(19) -0.0409(16) -0.0050(14) -0.0067(14)
C9 0.0312(13) 0.076(2) 0.0632(18) -0.0377(16) -0.0108(13) 0.0066(13)
C10 0.0381(14) 0.0576(16) 0.0520(16) -0.0204(14) -0.0132(12) 0.0119(12)
C11 0.0467(15) 0.0393(15) 0.0413(14) -0.0167(11) -0.0056(11) 0.0016(12)
C12 0.0386(13) 0.0453(14) 0.0359(13) -0.0138(11) -0.0095(11) 0.0049(12)

#END
